LAMMPS (16 Mar 2018)
# 3d Lennard-Jones melt

units		lj
atom_style	atomic

lattice		fcc 0.8442
Lattice spacing in x,y,z = 1.6796 1.6796 1.6796
region		box block 0 4 0 4 0 4
create_box	1 box
Created orthogonal box = (0 0 0) to (6.71838 6.71838 6.71838)
create_atoms	1 box
Created 256 atoms
  Time spent = 0.000631094 secs
mass		1 1.0

velocity	all create 10.0 87287

pair_style	lj/cut 2.5
pair_coeff	1 1 1.0 1.0 2.5

neighbor	0.3 bin
neigh_modify	every 20 delay 0 check no

python post_force_callback file pylmp.py

fix		1 all nve
fix		2 all python/invoke 50 post_force post_force_callback

dump		id all atom 50 dumpT10.0.lammpstrj
#dump		id all xyz 10 dump.xyz

#dump		2 all image 25 image.*.jpg type type #		axes yes 0.8 0.02 view 60 -30
#dump_modify	2 pad 3

#dump		3 all movie 25 movie.mpg type type #		axes yes 0.8 0.02 view 60 -30
#dump_modify	3 pad 3

thermo		50
run		10000
  update every 20 steps, delay 0 steps, check no
Step Temp E_pair E_mol TotEng Press
0           10   -6.7733681            0    8.1680382    2.1737062
Averages over the last 101 of 201 rows, steps 5000 to 10000:
Temp E_pair E_mol TotEng Press
490.872 -2.00399 0 731.428 429.054
Loop time of 1.46216 on 1 procs for 10000 steps with 256 atoms
